<?xml version="1.0" encoding="UTF-8"?>
<edges xmlns:xsi="http://www.w3.org/2001/XMLSchema-instance">
    <edge from="A28H0" id="A28Tot350" to="A28H350" numLanes="1" priority="2" />
</edges>
