<?xml version="1.0" encoding="UTF-8"?>
<routes>
  <vType id="Car" accel="1.0" decel="3.0" length="5.0" minGap="2.0" maxSpeed="70.0" sigma="0" />
  
   <route id="route0" color="1,1,0" edges="main2Lane mainFront mainEnd exit"	 />
   <route id="route1" color="1,0,0" edges="ramp mainFront mainEnd exit"		 />
   
</routes>
