<?xml version="1.0" encoding="UTF-8"?>

<configuration>

    <input>
        <node-files value="hello.nod.xml"/>
        <edge-files value="hello.edg.xml"/>
    </input>

    <output>
        <output-file value="hello.net.xml"/>
    </output>

	<building_defaults>
		<default.speed value="100"/>	
	</building_defaults>
	
	

	<processing>
		<no-internal-links value="false"/>
	</processing>
    
    <report>
        <verbose value="true"/>
    </report>

</configuration>
