<?xml version="1.0" encoding="UTF-8"?>
<nodes xmlns:xsi="http://www.w3.org/2001/XMLSchema-instance">
    <node id="A28H0" x="-800.0" y="0.0" />
    <node id="A28H350" x="0.0" y="0.0" /> 
	<node id="A28H700" x="+800.0" y="0.0" />
    <node id="A28Exit" x="+801.0" y="0.0" /> 
    <node id="N42Invoeg" x="-700.0" y="-400.0" />
</nodes>
