<?xml version="1.0" encoding="UTF-8"?>

<configuration xmlns:xsi="http://www.w3.org/2001/XMLSchema-instance" >

    <input>
        <net-file value="takeOverScenario.net.xml"/>
        <route-files value="takeOverScenario.rou.xml"/>
    </input>

    <time>
        <begin value="0"/>
        <end value="10000"/>
    </time>

    <!--<remote-port value="8813"/>-->
</configuration>

