<?xml version="1.0" encoding="UTF-8"?>

<!-- generated on Sun Mar  8 19:54:26 2015 by SUMO netconvert Version 0.22.0
<?xml version="1.0" encoding="UTF-8"?>

<configuration xmlns:xsi="http://www.w3.org/2001/XMLSchema-instance" xsi:noNamespaceSchemaLocation="http://sumo.dlr.de/xsd/netconvertConfiguration.xsd">

    <input>
        <node-files value="orgnormtest.nod.xml"/>
        <edge-files value="orgnormtest.edg.xml"/>
    </input>

    <output>
        <output-file value="orgnormtest.net.xml"/>
    </output>

    <processing>
        <no-internal-links value="false"/>
    </processing>

    <building_defaults>
        <default.speed value="100"/>
    </building_defaults>

    <report>
        <verbose value="true"/>
    </report>

</configuration>
-->

<net version="0.13" xmlns:xsi="http://www.w3.org/2001/XMLSchema-instance" xsi:noNamespaceSchemaLocation="http://sumo.dlr.de/xsd/net_file.xsd">

    <location netOffset="350.00,100.00" convBoundary="0.00,0.00,701.00,100.00" origBoundary="-350.00,-100.00,351.00,0.00" projParameter="!"/>

    <edge id=":A28H350_0" function="internal">
        <lane id=":A28H350_0_0" index="0" speed="100.00" length="9.99" shape="342.99,94.65 352.27,98.35"/>
    </edge>
    <edge id=":A28H350_1" function="internal">
        <lane id=":A28H350_1_0" index="0" speed="100.00" length="10.16" shape="342.11,98.35 345.10,98.35 347.19,98.35 349.27,98.35 352.27,98.35"/>
    </edge>
    <edge id=":A28H700_0" function="internal">
        <lane id=":A28H700_0_0" index="0" speed="100.00" length="0.10" shape="700.00,98.35 700.00,98.35"/>
    </edge>

    <edge id="A28Tot350" from="A28H0" to="A28H350" priority="1">
        <lane id="A28Tot350_0" index="0" speed="100.00" length="342.11" shape="0.00,98.35 342.11,98.35"/>
    </edge>
    <edge id="A28Tot700" from="A28H350" to="A28H700" priority="1">
        <lane id="A28Tot700_0" index="0" speed="100.00" length="347.73" shape="352.27,98.35 700.00,98.35"/>
    </edge>
    <edge id="A28TotExit" from="A28H700" to="A28Exit" priority="1">
        <lane id="A28TotExit_0" index="0" speed="100.00" length="1.00" shape="700.00,98.35 701.00,98.35"/>
    </edge>
    <edge id="N42" from="N42Invoeg" to="A28H350" priority="1">
        <lane id="N42_0" index="0" speed="100.00" length="214.94" shape="150.74,-1.48 342.99,94.65"/>
    </edge>

    <junction id="A28Exit" type="unregulated" x="701.00" y="100.00" incLanes="A28TotExit_0" intLanes="" shape="701.00,96.75 701.00,99.95"/>
    <junction id="A28H0" type="unregulated" x="0.00" y="100.00" incLanes="" intLanes="" shape="-0.00,99.95 -0.00,96.75"/>
    <junction id="A28H350" type="priority" x="350.00" y="100.00" incLanes="N42_0 A28Tot350_0" intLanes=":A28H350_0_0 :A28H350_1_0" shape="352.27,99.95 352.27,96.75 343.70,93.22 342.27,96.08 342.11,96.75 342.11,99.95">
        <request index="0" response="00" foes="10" cont="0"/>
        <request index="1" response="01" foes="01" cont="0"/>
    </junction>
    <junction id="A28H700" type="priority" x="700.00" y="100.00" incLanes="A28Tot700_0" intLanes=":A28H700_0_0" shape="700.00,99.95 700.00,96.75 700.00,99.95">
        <request index="0" response="0" foes="0" cont="0"/>
    </junction>
    <junction id="N42Invoeg" type="unregulated" x="150.00" y="0.00" incLanes="" intLanes="" shape="150.02,-0.04 151.45,-2.91"/>

    <connection from="A28Tot350" to="A28Tot700" fromLane="0" toLane="0" via=":A28H350_1_0" dir="s" state="m"/>
    <connection from="A28Tot700" to="A28TotExit" fromLane="0" toLane="0" via=":A28H700_0_0" dir="s" state="M"/>
    <connection from="N42" to="A28Tot700" fromLane="0" toLane="0" via=":A28H350_0_0" dir="s" state="M"/>

    <connection from=":A28H350_0" to="A28Tot700" fromLane="0" toLane="0" dir="s" state="M"/>
    <connection from=":A28H350_1" to="A28Tot700" fromLane="0" toLane="0" dir="s" state="M"/>
    <connection from=":A28H700_0" to="A28TotExit" fromLane="0" toLane="0" dir="s" state="M"/>

</net>
