<?xml version="1.0" encoding="UTF-8"?>

<!-- generated on 05/27/15 14:28:33 by SUMO netconvert Version 0.23.0
<?xml version="1.0" encoding="UTF-8"?>

<configuration xmlns:xsi="http://www.w3.org/2001/XMLSchema-instance" xsi:noNamespaceSchemaLocation="http://sumo.dlr.de/xsd/netconvertConfiguration.xsd">

    <input>
        <node-files value="simple.nod.xml"/>
        <edge-files value="simple.edg.xml"/>
    </input>

    <output>
        <output-file value="simple.net.xml"/>
    </output>

    <processing>
        <no-internal-links value="false"/>
    </processing>

    <building_defaults>
        <default.speed value="100"/>
    </building_defaults>

    <report>
        <verbose value="true"/>
    </report>

</configuration>
-->

<net version="0.13" xmlns:xsi="http://www.w3.org/2001/XMLSchema-instance" xsi:noNamespaceSchemaLocation="http://sumo.dlr.de/xsd/net_file.xsd">

    <location netOffset="350.00,0.00" convBoundary="0.00,0.00,700.00,0.00" origBoundary="-350.00,0.00,350.00,0.00" projParameter="!"/>

    <edge id=":A28H350_0" function="internal">
        <lane id=":A28H350_0_0" index="0" speed="100.00" length="0.10" shape="350.00,-4.95 350.00,-4.95"/>
        <lane id=":A28H350_0_1" index="1" speed="100.00" length="0.10" shape="350.00,-1.65 350.00,-1.65"/>
    </edge>

    <edge id="A28Tot350" from="A28H0" to="A28H350" priority="2">
        <lane id="A28Tot350_0" index="0" speed="100.00" length="350.00" shape="0.00,-4.95 350.00,-4.95"/>
        <lane id="A28Tot350_1" index="1" speed="100.00" length="350.00" shape="0.00,-1.65 350.00,-1.65"/>
    </edge>
    <edge id="A28_350Tot700" from="A28H350" to="A28H700" priority="2">
        <lane id="A28_350Tot700_0" index="0" speed="100.00" length="350.00" shape="350.00,-4.95 700.00,-4.95"/>
        <lane id="A28_350Tot700_1" index="1" speed="100.00" length="350.00" shape="350.00,-1.65 700.00,-1.65"/>
    </edge>

    <junction id="A28H0" type="unregulated" x="0.00" y="0.00" incLanes="" intLanes="" shape="-0.00,-0.05 -0.00,-6.55"/>
    <junction id="A28H350" type="priority" x="350.00" y="0.00" incLanes="A28Tot350_0 A28Tot350_1" intLanes=":A28H350_0_0 :A28H350_0_1" shape="350.00,-0.05 350.00,-6.55 350.00,-0.05">
        <request index="0" response="00" foes="00" cont="0"/>
        <request index="1" response="00" foes="00" cont="0"/>
    </junction>
    <junction id="A28H700" type="unregulated" x="700.00" y="0.00" incLanes="A28_350Tot700_0 A28_350Tot700_1" intLanes="" shape="700.00,-6.55 700.00,-0.05"/>

    <connection from="A28Tot350" to="A28_350Tot700" fromLane="0" toLane="0" via=":A28H350_0_0" dir="s" state="M"/>
    <connection from="A28Tot350" to="A28_350Tot700" fromLane="1" toLane="1" via=":A28H350_0_1" dir="s" state="M"/>

    <connection from=":A28H350_0" to="A28_350Tot700" fromLane="0" toLane="0" dir="s" state="M"/>
    <connection from=":A28H350_0" to="A28_350Tot700" fromLane="1" toLane="1" dir="s" state="M"/>

</net>
