<?xml version="1.0" encoding="UTF-8"?>

<!-- generated on Wed Feb 25 10:02:09 2015 by SUMO Version 0.22.0
<?xml version="1.0" encoding="UTF-8"?>

<configuration xmlns:xsi="http://www.w3.org/2001/XMLSchema-instance" xsi:noNamespaceSchemaLocation="http://sumo.dlr.de/xsd/sumoConfiguration.xsd">

    <input>
        <net-file value="/Users/barendpoot/Workspace/TrafficMAS/TrafficMASTests/tests/SimulationModelTraaS/SimulateAgentActions/NetworkTest.xml"/>
        <route-files value="/Users/barendpoot/Workspace/TrafficMAS/TrafficMASTests/tests/SimulationModelTraaS/SimulateAgentActions/RouteTest.xml"/>
        <additional-files value="/Users/barendpoot/Workspace/TrafficMAS/TrafficMASTests/tests/SimulationModelTraaS/SimulateAgentActions/SensorTest.xml"/>
    </input>

    <output>
        <save-state.prefix value="/Users/barendpoot/Workspace/TrafficMAS/TrafficMASTests/tests/SimulationModelTraaS/SimulateAgentActions/state"/>
    </output>

    <time>
        <end value="10"/>
    </time>

    <emissions>
        <phemlight-path value="/Users/barendpoot/Workspace/TrafficMAS/TrafficMASTests/tests/SimulationModelTraaS/SimulateAgentActions/./PHEMlight/"/>
    </emissions>

    <traci_server>
        <remote-port value="60116"/>
    </traci_server>

    <random_number>
        <seed value="0"/>
    </random_number>

    <gui_only>
        <gui-settings-file value="/Users/barendpoot/Workspace/TrafficMAS/TrafficMASTests/tests/SimulationModelTraaS/SimulateAgentActions/SettingsTest.xml"/>
        <quit-on-end value="true"/>
        <start value="true"/>
    </gui_only>

</configuration>
